CemigDFeeders/IIGD210/IIGD210SegmentosMT.dss
new line.TR10982609 bus1=BMT100954856.1.2.3,bus2=BMT1447105B.1.2.3,Phases=3,Linecode=CABA06_3_3,Length=0.007209000,Units=km
new line.TR10982616 bus1=BMT1447105B.1.2.3,bus2=BMT1447091B.1.2.3,Phases=3,Linecode=CABA06_3_3,Length=0.034512000,Units=km
new line.TR10982623 bus1=BMT1447091B.1.2.3,bus2=BMT100954870.1.2.3,Phases=3,Linecode=CABA06_3_3,Length=0.037641000,Units=km
new line.TR11383828 bus1=BMT100954737.1.2.3,bus2=BMT100954751.1.2.3,Phases=3,Linecode=CABA06_3_3,Length=0.031388000,Units=km
new line.TR11383884 bus1=BMT1408143B.1.2.3,bus2=BMT156119569.1.2.3,Phases=3,Linecode=CAB102_3_3,Length=0.003999000,Units=km
new line.TR11383891 bus1=BMT156119569.1.2.3,bus2=BMT1408178B.1.2.3,Phases=3,Linecode=CAB102_3_3,Length=0.021579000,Units=km
new line.TR11383898 bus1=BMT156119569.1.2.3,bus2=BMT1408157B.1.2.3,Phases=3,Linecode=CAB102_3_3,Length=0.021016000,Units=km
new line.TR11383905 bus1=BMT156119569.1.2.3,bus2=BMT1408164B.1.2.3,Phases=3,Linecode=CAB102_3_3,Length=0.008243000,Units=km
new line.TR11403883 bus1=BMT1410551B.1.2.3,bus2=BMT7607833B.1.2.3,Phases=3,Linecode=CAB103_3_3,Length=0.012037000,Units=km
new line.TR11403890 bus1=BMT1666835B.1.2.3,bus2=BMT7607833B.1.2.3,Phases=3,Linecode=CAB103_3_3,Length=0.024749000,Units=km
new line.TR11829847 bus1=BMT1429073B.1.2.3,bus2=BMT1429080B.1.2.3,Phases=3,Linecode=CAB103_3_3,Length=0.029721000,Units=km
new line.TR11830001 bus1=BMT1429080B.1.2.3,bus2=BMT1429101B.1.2.3,Phases=3,Linecode=CAB103_3_3,Length=0.027192000,Units=km
new line.TR11830008 bus1=BMT1429101B.1.2.3,bus2=BMT158401115.1.2.3,Phases=3,Linecode=CAB103_3_3,Length=0.032545000,Units=km
new line.TR11834089 bus1=BMT123691325.1.2.3,bus2=BMT123691402.1.2.3,Phases=3,Linecode=CAB108_3_3,Length=0.021252000,Units=km
new line.TR11834096 bus1=BMT123691402.1.2.3,bus2=BMT100951860.1.2.3,Phases=3,Linecode=CAB108_3_3,Length=0.010626000,Units=km
new line.TR11836952 bus1=BMT1431173B.1.2.3,bus2=BMT123939328.1.2.3,Phases=3,Linecode=CAB108_3_3,Length=0.026391000,Units=km
new line.TR11836966 bus1=BMT123939762.1.2.3,bus2=BMT123939769.1.2.3,Phases=3,Linecode=CAB902_4_3,Length=0.021532000,Units=km
new line.TR11849104 bus1=BMT1446321B.1.2.3,bus2=BMT171262356.1.2.3,Phases=3,Linecode=CAB108_3_3,Length=0.021923000,Units=km
new line.TR11849111 bus1=BMT171262356.1.2.3,bus2=BMT100954674.1.2.3,Phases=3,Linecode=CAB108_3_3,Length=0.007613000,Units=km
new line.TR11856545 bus1=BMT160899311.1.2.3,bus2=BMT125341463.1.2.3,Phases=3,Linecode=CABA08_3_3,Length=0.015292000,Units=km
new line.TR11856552 bus1=BMT160899328.1.2.3,bus2=BMT160899329.1.2.3,Phases=3,Linecode=CABA08_3_3,Length=0.025308000,Units=km
new line.TR11862460 bus1=BMT171095634.1.2.3,bus2=BMT6276314B.1.2.3,Phases=3,Linecode=CABA06_3_3,Length=0.012723000,Units=km
new line.TR11862467 bus1=BMT6276314B.1.2.3,bus2=BMT5913322B.1.2.3,Phases=3,Linecode=CABA06_3_3,Length=0.026561000,Units=km
new line.TR11862474 bus1=BMT5913322B.1.2.3,bus2=BMT5913315B.1.2.3,Phases=3,Linecode=CABA06_3_3,Length=0.027449000,Units=km
new line.TR11862642 bus1=BMT5913315B.1.2.3,bus2=BMT1407170B.1.2.3,Phases=3,Linecode=CABA06_3_3,Length=0.025011000,Units=km
new line.TR11862649 bus1=BMT1407170B.1.2.3,bus2=BMT1407163B.1.2.3,Phases=3,Linecode=CABA06_3_3,Length=0.039190000,Units=km
new line.TR11862656 bus1=BMT1407163B.1.2.3,bus2=BMT171095636.1.2.3,Phases=3,Linecode=CABA06_3_3,Length=0.028274000,Units=km
new line.TR11862740 bus1=BMT170641606.1.2.3,bus2=BMT170641607.1.2.3,Phases=3,Linecode=CAB103_3_3,Length=0.018241000,Units=km
new line.TR11862747 bus1=BMT1436150B.1.2.3,bus2=BMT170641607.1.2.3,Phases=3,Linecode=CAB103_3_3,Length=0.007069000,Units=km
new line.TR11862754 bus1=BMT170641607.1.2.3,bus2=BMT1436206B.1.2.3,Phases=3,Linecode=CABA06_3_3,Length=0.010813000,Units=km
new line.TR11862761 bus1=BMT170641607.1.2.3,bus2=BMT1436157B.1.2.3,Phases=3,Linecode=CABA06_3_3,Length=0.009996000,Units=km
new line.TR11862796 bus1=BMT1436157B.1.2.3,bus2=BMT170641609.1.2.3,Phases=3,Linecode=CABA06_3_3,Length=0.034396000,Units=km
new line.TR11863041 bus1=BMT158968687.1.2.3,bus2=BMT1471808B.1.2.3,Phases=3,Linecode=CABA06_3_3,Length=0.024990000,Units=km
new line.TR11863062 bus1=BMT1471808B.1.2.3,bus2=BMT158968688.1.2.3,Phases=3,Linecode=CABA06_3_3,Length=0.028589000,Units=km
new line.TR11867815 bus1=BMT166654676.1.2.3,bus2=BMT166654677.1.2.3,Phases=3,Linecode=CABA06_3_3,Length=0.016118000,Units=km
new line.TR11872869 bus1=BMT1444746B.1.2.3,bus2=BMT1444739B.1.2.3,Phases=3,Linecode=CAB102_3_3,Length=0.044028000,Units=km
new line.TR11872890 bus1=BMT1444739B.1.2.3,bus2=BMT159365558.1.2.3,Phases=3,Linecode=CAB102_3_3,Length=0.038403000,Units=km
new line.TR11873996 bus1=BMT164022845.1.2.3,bus2=BMT1413820B.1.2.3,Phases=3,Linecode=CABA06_3_3,Length=0.031373000,Units=km
new line.TR11874003 bus1=BMT1413820B.1.2.3,bus2=BMT1413813B.1.2.3,Phases=3,Linecode=CABA06_3_3,Length=0.027303000,Units=km
new line.TR11874010 bus1=BMT1413813B.1.2.3,bus2=BMT1413799B.1.2.3,Phases=3,Linecode=CABA06_3_3,Length=0.025010000,Units=km
new line.TR11874017 bus1=BMT1413799B.1.2.3,bus2=BMT1416410B.1.2.3,Phases=3,Linecode=CABA06_3_3,Length=0.024198000,Units=km
new line.TR11874024 bus1=BMT1416410B.1.2.3,bus2=BMT164022846.1.2.3,Phases=3,Linecode=CABA06_3_3,Length=0.034046000,Units=km
new line.TR12136479 bus1=BMT1446958B.1.2.3,bus2=BMT149065971.1.2.3,Phases=3,Linecode=CAB107_3_3,Length=0.015615000,Units=km
new line.TR12136480 bus1=BMT1444858B.1.2.3,bus2=BMT149065971.1.2.3,Phases=3,Linecode=CAB107_3_3,Length=0.014994000,Units=km
new line.TR12136485 bus1=BMT149065981.1.2.3,bus2=BMT149065982.1.2.3,Phases=3,Linecode=CAB902_4_3,Length=0.018432000,Units=km
new line.TR12141176 bus1=BMT159846898.1.2.3,bus2=BMT159846899.1.2.3,Phases=3,Linecode=CABA06_3_3,Length=0.004998000,Units=km
new line.TR12141185 bus1=BMT159846899.1.2.3,bus2=BMT159846900.1.2.3,Phases=3,Linecode=CAB609_3_3,Length=0.002999000,Units=km
new line.TR12141186 bus1=BMT159846900.1.2.3,bus2=BMT159846901.1.2.3,Phases=3,Linecode=CAB609_3_3,Length=0.011658000,Units=km
new line.TR12141187 bus1=BMT159846901.1.2.3,bus2=BMT159846902.1.2.3,Phases=3,Linecode=CAB609_3_3,Length=0.004998000,Units=km
new line.TR12142765 bus1=BMT156119702.1.2.3,bus2=BMT156119703.1.2.3,Phases=3,Linecode=CAB004_3_3,Length=0.017458000,Units=km
new line.TR12313688 bus1=BMT160932762.1.2.3,bus2=BMT160932764.1.2.3,Phases=3,Linecode=CABA08_3_3,Length=0.026673000,Units=km
new line.TR12313689 bus1=BMT156119518.1.2.3,bus2=BMT163264307.1.2.3,Phases=3,Linecode=CAB907_4_3,Length=0.035888000,Units=km
new line.TR12313709 bus1=BMT1433329C.1.2.3,bus2=BMT1433336C.1.2.3,Phases=3,Linecode=CAB907_4_3,Length=0.030875000,Units=km
new line.TR12313711 bus1=BMT1433336C.1.2.3,bus2=BMT1433343C.1.2.3,Phases=3,Linecode=CAB907_4_3,Length=0.032744000,Units=km
new line.TR10139746 bus1=BMT6243673B.1,bus2=BMT172344585.1,Phases=1,Linecode=CAB103_3_1,Length=0.015615000,Units=km
new line.TR10155783 bus1=BMT6273171B.1.2.3,bus2=BMT1412693B.1.2.3,Phases=3,Linecode=CAB102_3_3,Length=0.010813000,Units=km
new line.TR10157897 bus1=BMT6278274B.1.2.3,bus2=BMT6278302B.1.2.3,Phases=3,Linecode=CAB102_3_3,Length=0.008541000,Units=km
new line.TR10157904 bus1=BMT6278302B.1.2.3,bus2=BMT164022848.1.2.3,Phases=3,Linecode=CAB102_3_3,Length=0.031768000,Units=km
new line.TR10349417 bus1=BMT164228110.1.2.3,bus2=BMT112010768.1.2.3,Phases=3,Linecode=CAB103_3_3,Length=0.016993000,Units=km
new line.TR10363431 bus1=BMT165779949.1.2.3,bus2=BMT6616717B.1.2.3,Phases=3,Linecode=CABA08_3_3,Length=0.020583000,Units=km
new line.TR10363438 bus1=BMT6616717B.1.2.3,bus2=BMT165779950.1.2.3,Phases=3,Linecode=CABA08_3_3,Length=0.021579000,Units=km
new line.TR11495002 bus1=BMT159476233.1.2.3,bus2=BMT159476234.1.2.3,Phases=3,Linecode=CAB104_3_3,Length=0.044926000,Units=km
new line.TR11513699 bus1=BMT1415444B.1.2.3,bus2=BMT1415437B.1.2.3,Phases=3,Linecode=CAB102_3_3,Length=0.034119000,Units=km
new line.TR11890810 bus1=BMT1569654B.1,bus2=BMT8043590B.1,Phases=1,Linecode=CAB103_3_1,Length=0.020389000,Units=km
new line.TR11890817 bus1=BMT1570102B.1,bus2=BMT8043590B.1,Phases=1,Linecode=CAB103_3_1,Length=0.016994000,Units=km
new line.TR11899847 bus1=BMT172511152.1.2.3,bus2=BMT1705041B.1.2.3,Phases=3,Linecode=CABA06_3_3,Length=0.047395000,Units=km
new line.TR11899903 bus1=BMT1705041B.1.2.3,bus2=BMT1705034B.1.2.3,Phases=3,Linecode=CABA06_3_3,Length=0.033109000,Units=km
new line.TR11899917 bus1=BMT1705034B.1.2.3,bus2=BMT1705027B.1.2.3,Phases=3,Linecode=CABA06_3_3,Length=0.033109000,Units=km
new line.TR11899931 bus1=BMT1705027B.1.2.3,bus2=BMT152436119.1.2.3,Phases=3,Linecode=CABA06_3_3,Length=0.042938000,Units=km
new line.TR11899952 bus1=BMT152520232.1.2.3,bus2=BMT1705062B.1.2.3,Phases=3,Linecode=CABA06_3_3,Length=0.032299000,Units=km
new line.TR11899959 bus1=BMT1705062B.1.2.3,bus2=BMT1705076B.1.2.3,Phases=3,Linecode=CABA06_3_3,Length=0.029058000,Units=km
new line.TR11899966 bus1=BMT1705076B.1.2.3,bus2=BMT152520233.1.2.3,Phases=3,Linecode=CABA06_3_3,Length=0.031941000,Units=km
new line.TR11907925 bus1=BMT171262355.1.2.3,bus2=BMT1445775B.1.2.3,Phases=3,Linecode=CABA06_3_3,Length=0.009052000,Units=km
new line.TR11907953 bus1=BMT1445775B.1.2.3,bus2=BMT1445747B.1.2.3,Phases=3,Linecode=CABA06_3_3,Length=0.032375000,Units=km
new line.TR11907960 bus1=BMT1445747B.1.2.3,bus2=BMT171262357.1.2.3,Phases=3,Linecode=CABA06_3_3,Length=0.032545000,Units=km
new line.TR11918915 bus1=BMT159365553.1.2.3,bus2=BMT1444795B.1.2.3,Phases=3,Linecode=CAB103_3_3,Length=0.038455000,Units=km
new line.TR11919692 bus1=BMT1444795B.1.2.3,bus2=BMT159365554.1.2.3,Phases=3,Linecode=CAB103_3_3,Length=0.028167000,Units=km
new line.TR11923073 bus1=BMT156119635.1.2.3,bus2=BMT1402452B.1.2.3,Phases=3,Linecode=CAB103_3_3,Length=0.034987000,Units=km
new line.TR11923080 bus1=BMT1402452B.1.2.3,bus2=BMT1402459B.1.2.3,Phases=3,Linecode=CAB103_3_3,Length=0.034987000,Units=km
new line.TR11923087 bus1=BMT1402459B.1.2.3,bus2=BMT1402466B.1.2.3,Phases=3,Linecode=CAB103_3_3,Length=0.034192000,Units=km
new line.TR11923094 bus1=BMT1402466B.1.2.3,bus2=BMT1403502B.1.2.3,Phases=3,Linecode=CAB103_3_3,Length=0.022195000,Units=km
new line.TR11923101 bus1=BMT1403502B.1.2.3,bus2=BMT156119633.1.2.3,Phases=3,Linecode=CAB103_3_3,Length=0.035791000,Units=km
new line.TR12148319 bus1=BMT172829137.1.2.3,bus2=BMT8744067B.1.2.3,Phases=3,Linecode=CAB108_3_3,Length=0.017798000,Units=km
new line.TR12148320 bus1=BMT172829136.1.2.3,bus2=BMT8744067B.1.2.3,Phases=3,Linecode=CAB108_3_3,Length=0.014207000,Units=km
new line.TR12148336 bus1=BMT1427183B.1.2.3,bus2=BMT8744123B.1.2.3,Phases=3,Linecode=CAB107_3_3,Length=0.010437000,Units=km
new line.TR12148337 bus1=BMT8744123B.1.2.3,bus2=BMT100946407.1.2.3,Phases=3,Linecode=CAB107_3_3,Length=0.012995000,Units=km
new line.TR12150860 bus1=BMT167917642.1.2.3,bus2=BMT167917643.1.2.3,Phases=3,Linecode=CABA06_3_3,Length=0.022817000,Units=km
new line.TR12230418 bus1=BMT152520233.1.2.3,bus2=BMT8053075B.1.2.3,Phases=3,Linecode=CABA06_3_3,Length=0.034426000,Units=km
new line.TR12230420 bus1=BMT8053075B.1.2.3,bus2=BMT1565762B.1.2.3,Phases=3,Linecode=CABA06_3_3,Length=0.012079000,Units=km
new line.TR12230421 bus1=BMT1565762B.1.2.3,bus2=BMT1565825B.1.2.3,Phases=3,Linecode=CABA06_3_3,Length=0.038457000,Units=km
new line.TR12230422 bus1=BMT1565825B.1.2.3,bus2=BMT8831494B.1.2.3,Phases=3,Linecode=CABA06_3_3,Length=0.043401000,Units=km
new line.TR12230423 bus1=BMT8831494B.1.2.3,bus2=BMT152520234.1.2.3,Phases=3,Linecode=CABA06_3_3,Length=0.040691000,Units=km
new line.TR12285774 bus1=BMT123939328.1.2.3,bus2=BMT1431187B.1.2.3,Phases=3,Linecode=CAB108_3_3,Length=0.039796000,Units=km
new line.TR12287085 bus1=BMT160932771.1.2.3,bus2=BMT160932772.1.2.3,Phases=3,Linecode=CAB902_4_3,Length=0.033528000,Units=km
new line.TR12287107 bus1=BMT164591288.1.2.3,bus2=BMT8889451B.1.2.3,Phases=3,Linecode=CAB907_4_3,Length=0.013337000,Units=km
new line.TR12287108 bus1=BMT8889451B.1.2.3,bus2=BMT154368884.1.2.3,Phases=3,Linecode=CAB907_4_3,Length=0.019098000,Units=km
new line.TR12287110 bus1=BMT172739121.1.2.3,bus2=BMT172739118.1.2.3,Phases=3,Linecode=CAB907_4_3,Length=0.025485000,Units=km
new line.TR12287112 bus1=BMT172739118.1.2.3,bus2=BMT154369063.1.2.3,Phases=3,Linecode=CAB907_4_3,Length=0.018966000,Units=km
new line.TR12287115 bus1=BMT160932773.1.2.3,bus2=BMT160932771.1.2.3,Phases=3,Linecode=CAB907_4_3,Length=0.026560000,Units=km
new line.TR12287116 bus1=BMT160932771.1.2.3,bus2=BMT8889481B.1.2.3,Phases=3,Linecode=CAB907_4_3,Length=0.031768000,Units=km
new line.TR12287117 bus1=BMT8889481B.1.2.3,bus2=BMT8889482B.1.2.3,Phases=3,Linecode=CAB907_4_3,Length=0.027284000,Units=km
new line.TR12287149 bus1=BMT8889482B.1.2.3,bus2=BMT8889487B.1.2.3,Phases=3,Linecode=CAB907_4_3,Length=0.034425000,Units=km
new line.TR12287150 bus1=BMT8889487B.1.2.3,bus2=BMT8889488B.1.2.3,Phases=3,Linecode=CAB907_4_3,Length=0.027846000,Units=km
new line.TR12287158 bus1=BMT8889488B.1.2.3,bus2=BMT160932770.1.2.3,Phases=3,Linecode=CAB907_4_3,Length=0.024032000,Units=km
new line.TR12287159 bus1=BMT160932770.1.2.3,bus2=BMT156119525.1.2.3,Phases=3,Linecode=CAB907_4_3,Length=0.028273000,Units=km
new line.TR12287160 bus1=BMT160932766.1.2.3,bus2=BMT8889493C.1.2.3,Phases=3,Linecode=CAB907_4_3,Length=0.011176000,Units=km
new line.TR12287161 bus1=BMT8889493C.1.2.3,bus2=BMT160932768.1.2.3,Phases=3,Linecode=CAB907_4_3,Length=0.018021000,Units=km
new line.TR12376179 bus1=BMT1447434B.1.2.3,bus2=BMT157441417.1.2.3,Phases=3,Linecode=CABA08_3_3,Length=0.016395000,Units=km
new line.TR10102555 bus1=BMT172511146.1.2.3,bus2=BMT1566462B.1.2.3,Phases=3,Linecode=CAB102_3_3,Length=0.018594000,Units=km
new line.TR10102562 bus1=BMT172594445.1,bus2=BMT1566469B.1,Phases=1,Linecode=CAB103_3_1,Length=0.013148000,Units=km
new line.TR10106951 bus1=BMT164228108.1.2.3,bus2=BMT100961548.1.2.3,Phases=3,Linecode=CAB108_3_3,Length=0.028060000,Units=km
new line.TR10106958 bus1=BMT164228108.1.2.3,bus2=BMT164228109.1.2.3,Phases=3,Linecode=CAB103_3_3,Length=0.015805000,Units=km
new line.TR10106965 bus1=BMT164228108.1.2.3,bus2=BMT6188338B.1.2.3,Phases=3,Linecode=CAB103_3_3,Length=0.014555000,Units=km
new line.TR10135700 bus1=BMT100957733.1.2.3,bus2=BMT1483603B.1.2.3,Phases=3,Linecode=CAB103_3_3,Length=0.040591000,Units=km
new line.TR10135707 bus1=BMT100957733.1.2.3,bus2=BMT6236050B.1.2.3,Phases=3,Linecode=CABA06_3_3,Length=0.007807000,Units=km
new line.TR10626085 bus1=BMT158401281.1.2.3,bus2=BMT1416270B.1.2.3,Phases=3,Linecode=CABA06_3_3,Length=0.035157000,Units=km
new line.TR10626092 bus1=BMT1416270B.1.2.3,bus2=BMT1416263B.1.2.3,Phases=3,Linecode=CABA06_3_3,Length=0.031611000,Units=km
new line.TR10626099 bus1=BMT1416263B.1.2.3,bus2=BMT1413309B.1.2.3,Phases=3,Linecode=CABA06_3_3,Length=0.034469000,Units=km
new line.TR10868138 bus1=BMT171097789.1.2.3,bus2=BMT1569752B.1.2.3,Phases=3,Linecode=CAB103_3_3,Length=0.028168000,Units=km
new line.TR10884133 bus1=BMT172671437.1.2.3,bus2=BMT172671440.1.2.3,Phases=3,Linecode=CAB107_3_3,Length=0.024198000,Units=km
new line.TR10886191 bus1=BMT161029635.1.2.3,bus2=BMT1415402B.1.2.3,Phases=3,Linecode=CABA06_3_3,Length=0.015028000,Units=km
new line.TR10886198 bus1=BMT1415402B.1.2.3,bus2=BMT1415395B.1.2.3,Phases=3,Linecode=CABA06_3_3,Length=0.017993000,Units=km
new line.TR10886212 bus1=BMT1415395B.1.2.3,bus2=BMT1415388B.1.2.3,Phases=3,Linecode=CABA06_3_3,Length=0.031815000,Units=km
new line.TR10886219 bus1=BMT1415388B.1.2.3,bus2=BMT1415381B.1.2.3,Phases=3,Linecode=CABA06_3_3,Length=0.032637000,Units=km
new line.TR10886226 bus1=BMT1415381B.1.2.3,bus2=BMT1415374B.1.2.3,Phases=3,Linecode=CABA06_3_3,Length=0.036221000,Units=km
new line.TR10886247 bus1=BMT1415374B.1.2.3,bus2=BMT1415367B.1.2.3,Phases=3,Linecode=CABA06_3_3,Length=0.037628000,Units=km
new line.TR10886254 bus1=BMT1415367B.1.2.3,bus2=BMT1415360B.1.2.3,Phases=3,Linecode=CABA06_3_3,Length=0.034046000,Units=km
new line.TR10886506 bus1=BMT1415360B.1.2.3,bus2=BMT161029636.1.2.3,Phases=3,Linecode=CABA06_3_3,Length=0.039809000,Units=km
new line.TR11288824 bus1=BMT100944216.1.2.3,bus2=BMT100944223.1.2.3,Phases=3,Linecode=CAB103_3_3,Length=0.001000000,Units=km
new line.TR11628198 bus1=BMT110390576.1.2.3,bus2=BMT1435443B.1.2.3,Phases=3,Linecode=CABA06_3_3,Length=0.035341000,Units=km
new line.TR11628247 bus1=BMT1435443B.1.2.3,bus2=BMT1435436B.1.2.3,Phases=3,Linecode=CABA06_3_3,Length=0.037468000,Units=km
new line.TR11628254 bus1=BMT1435436B.1.2.3,bus2=BMT1435422B.1.2.3,Phases=3,Linecode=CABA06_3_3,Length=0.035341000,Units=km
new line.TR11628338 bus1=BMT1435422B.1.2.3,bus2=BMT1435415B.1.2.3,Phases=3,Linecode=CABA06_3_3,Length=0.020608000,Units=km
new line.TR11628506 bus1=BMT1435415B.1.2.3,bus2=BMT7828060B.1.2.3,Phases=3,Linecode=CABA06_3_3,Length=0.007209000,Units=km
new line.TR11628513 bus1=BMT7828060B.1.2.3,bus2=BMT110390583.1.2.3,Phases=3,Linecode=CABA06_3_3,Length=0.008599000,Units=km
new line.TR11647616 bus1=BMT161029631.1.2.3,bus2=BMT1418258B.1.2.3,Phases=3,Linecode=CABA06_3_3,Length=0.034046000,Units=km
new line.TR11647623 bus1=BMT1418258B.1.2.3,bus2=BMT1418265B.1.2.3,Phases=3,Linecode=CABA06_3_3,Length=0.034046000,Units=km
new line.TR11647630 bus1=BMT1418265B.1.2.3,bus2=BMT161029632.1.2.3,Phases=3,Linecode=CABA06_3_3,Length=0.036331000,Units=km
new line.TR11647686 bus1=BMT164022849.1.2.3,bus2=BMT1416515B.1.2.3,Phases=3,Linecode=CABA06_3_3,Length=0.034002000,Units=km
new line.TR11647742 bus1=BMT1416515B.1.2.3,bus2=BMT1416522B.1.2.3,Phases=3,Linecode=CABA06_3_3,Length=0.029955000,Units=km
new line.TR11647763 bus1=BMT1416522B.1.2.3,bus2=BMT1416543B.1.2.3,Phases=3,Linecode=CABA06_3_3,Length=0.035455000,Units=km
new line.TR11647770 bus1=BMT1416543B.1.2.3,bus2=BMT1416550B.1.2.3,Phases=3,Linecode=CABA06_3_3,Length=0.034002000,Units=km
new line.TR11647812 bus1=BMT1416550B.1.2.3,bus2=BMT164022850.1.2.3,Phases=3,Linecode=CABA06_3_3,Length=0.034915000,Units=km
new line.TR11657822 bus1=BMT150342587.1.2.3,bus2=BMT150342588.1.2.3,Phases=3,Linecode=CAB401_3_3,Length=0.005998000,Units=km
new line.TR11657836 bus1=BMT150342588.1.2.3,bus2=BMT150342589.1.2.3,Phases=3,Linecode=CAB401_3_3,Length=0.005998000,Units=km
new line.TR11657885 bus1=BMT150342585.1.2.3,bus2=BMT150342586.1.2.3,Phases=3,Linecode=CAB103_3_3,Length=0.004122000,Units=km
new line.TR11657906 bus1=BMT150342586.1.2.3,bus2=BMT150342587.1.2.3,Phases=3,Linecode=CAB401_3_3,Length=0.002999000,Units=km
new line.TR12036879 bus1=BMT1459418B.1.2.3,bus2=BMT8163598B.1.2.3,Phases=3,Linecode=CABA08_3_3,Length=0.011398000,Units=km
new line.TR12036886 bus1=BMT8163598B.1.2.3,bus2=BMT149451366.1.2.3,Phases=3,Linecode=CABA08_3_3,Length=0.040245000,Units=km
new line.TR12042584 bus1=BMT159794300.1.2.3,bus2=BMT1450423C.1.2.3,Phases=3,Linecode=CAB902_4_3,Length=0.030005000,Units=km
new line.TR12042633 bus1=BMT1450423C.1.2.3,bus2=BMT1450416B.1.2.3,Phases=3,Linecode=CAB902_4_3,Length=0.044367000,Units=km
new line.TR12043781 bus1=BMT159855007.1.2.3,bus2=BMT1463919B.1.2.3,Phases=3,Linecode=CABA06_3_3,Length=0.031878000,Units=km
new line.TR12043816 bus1=BMT1463919B.1.2.3,bus2=BMT1463905B.1.2.3,Phases=3,Linecode=CABA06_3_3,Length=0.027648000,Units=km
new line.TR12044040 bus1=BMT1463905B.1.2.3,bus2=BMT1463898B.1.2.3,Phases=3,Linecode=CABA06_3_3,Length=0.031815000,Units=km
new line.TR12044047 bus1=BMT1463898B.1.2.3,bus2=BMT159855009.1.2.3,Phases=3,Linecode=CABA06_3_3,Length=0.030598000,Units=km
new line.TR12080734 bus1=BMT1459418B.1.2.3,bus2=BMT149451365.1.2.3,Phases=3,Linecode=CABA08_3_3,Length=0.019917000,Units=km
new line.TR12175037 bus1=BMT150595637.1.2.3,bus2=BMT1479739B.1.2.3,Phases=3,Linecode=CABA06_3_3,Length=0.028589000,Units=km
new line.TR12175046 bus1=BMT1479739B.1.2.3,bus2=BMT1479746B.1.2.3,Phases=3,Linecode=CABA06_3_3,Length=0.036041000,Units=km
new line.TR12175049 bus1=BMT1479746B.1.2.3,bus2=BMT7890290B.1.2.3,Phases=3,Linecode=CABA06_3_3,Length=0.026896000,Units=km
new line.TR12175051 bus1=BMT7890290B.1.2.3,bus2=BMT150595639.1.2.3,Phases=3,Linecode=CABA06_3_3,Length=0.014994000,Units=km
new line.TR12348612 bus1=BMT157264080.1.2.3,bus2=BMT157264081.1.2.3,Phases=3,Linecode=CAB902_4_3,Length=0.003605000,Units=km
new line.TR12429183 bus1=BMT1406876B.1.2.3,bus2=BMT9035253B.1.2.3,Phases=3,Linecode=CAB104_3_3,Length=0.017198000,Units=km
new line.TR10322215 bus1=BMT6555355B.1.2.3,bus2=BMT1458844B.1.2.3,Phases=3,Linecode=CAB108_3_3,Length=0.020216000,Units=km
new line.TR10322222 bus1=BMT6555355C.1.2.3,bus2=BMT2613480B.1.2.3,Phases=3,Linecode=CAB108_3_3,Length=0.045159000,Units=km
new line.TR10678221 bus1=BMT1448225B.1.2.3,bus2=BMT165779953.1.2.3,Phases=3,Linecode=CAB102_3_3,Length=0.022014000,Units=km
new line.TR10678228 bus1=BMT165779953.1.2.3,bus2=BMT1448792B.1.2.3,Phases=3,Linecode=CAB102_3_3,Length=0.011176000,Units=km
new line.TR10678263 bus1=BMT165779953.1.2.3,bus2=BMT165779964.1.2.3,Phases=3,Linecode=CAB103_3_3,Length=0.038455000,Units=km
new line.TR10678375 bus1=BMT165779953.1.2.3,bus2=BMT1448785B.1.2.3,Phases=3,Linecode=CAB103_3_3,Length=0.007997000,Units=km
new line.TR10678704 bus1=BMT1448799B.1.2.3,bus2=BMT165779963.1.2.3,Phases=3,Linecode=CAB102_3_3,Length=0.028273000,Units=km
new line.TR10678711 bus1=BMT165779963.1.2.3,bus2=BMT165779965.1.2.3,Phases=3,Linecode=CAB103_3_3,Length=0.029143000,Units=km
new line.TR10678851 bus1=BMT165779963.1.2.3,bus2=BMT1448813B.1.2.3,Phases=3,Linecode=CAB102_3_3,Length=0.037321000,Units=km
new line.TR10679012 bus1=BMT1448813B.1.2.3,bus2=BMT165779966.1.2.3,Phases=3,Linecode=CAB102_3_3,Length=0.029143000,Units=km
new line.TR10679033 bus1=BMT165779966.1.2.3,bus2=BMT165779967.1.2.3,Phases=3,Linecode=CAB103_3_3,Length=0.040984000,Units=km
new line.TR11055290 bus1=BMT100952987.1.2.3,bus2=BMT1565650B.1.2.3,Phases=3,Linecode=CAB102_3_3,Length=0.018104000,Units=km
new line.TR11058300 bus1=BMT172594446.1,bus2=BMT1565363B.1,Phases=1,Linecode=CAB103_3_1,Length=0.034193000,Units=km
new line.TR11058307 bus1=BMT1565363B.1,bus2=BMT172594447.1,Phases=1,Linecode=CAB103_3_1,Length=0.032376000,Units=km
new line.TR11060603 bus1=BMT172594447.1,bus2=BMT7283698B.1,Phases=1,Linecode=CAB202_3_1,Length=0.097477000,Units=km
new line.TR11060652 bus1=BMT7283698B.1,bus2=BMT172594448.1,Phases=1,Linecode=CAB202_3_1,Length=0.237332000,Units=km
new line.TR11425443 bus1=BMT100957782.1.2.3,bus2=BMT1483617B.1.2.3,Phases=3,Linecode=CAB108_3_3,Length=0.032789000,Units=km
new line.TR11444826 bus1=BMT100960869.1.2.3,bus2=BMT100960876.1.2.3,Phases=3,Linecode=CAB902_4_3,Length=0.010766000,Units=km
new line.TR11449362 bus1=BMT1408087B.3,bus2=BMT7650183B.3,Phases=1,Linecode=CAB103_3_1,Length=0.010626000,Units=km
new line.TR11449369 bus1=BMT7650183B.3,bus2=BMT148877903.3,Phases=1,Linecode=CAB103_3_1,Length=0.013034000,Units=km
new line.TR11460471 bus1=BMT1461413B.1.2.3,bus2=BMT100961226.1.2.3,Phases=3,Linecode=CAB108_3_3,Length=0.028589000,Units=km
new line.TR11466960 bus1=BMT152878578.1.2.3,bus2=BMT7669251B.1.2.3,Phases=3,Linecode=CAB108_3_3,Length=0.037787000,Units=km
new line.TR11466967 bus1=BMT7669251B.1.2.3,bus2=BMT152878579.1.2.3,Phases=3,Linecode=CAB108_3_3,Length=0.033273000,Units=km
new line.TR11467023 bus1=BMT2613655B.1.2.3,bus2=BMT7669272B.1.2.3,Phases=3,Linecode=CAB108_3_3,Length=0.012037000,Units=km
new line.TR11467030 bus1=BMT7669272B.1.2.3,bus2=BMT100945777.1.2.3,Phases=3,Linecode=CAB108_3_3,Length=0.014312000,Units=km
new line.TR11467065 bus1=BMT2613452B.1.2.3,bus2=BMT100947863.1.2.3,Phases=3,Linecode=CAB108_3_3,Length=0.014030000,Units=km
new line.TR11467072 bus1=BMT104814341.1.2.3,bus2=BMT2613459B.1.2.3,Phases=3,Linecode=CAB108_3_3,Length=0.086243000,Units=km
new line.TR11467079 bus1=BMT2613508B.1.2.3,bus2=BMT156119509.1.2.3,Phases=3,Linecode=CAB108_3_3,Length=0.014030000,Units=km
new line.TR11467086 bus1=BMT160932757.1.2.3,bus2=BMT2613515B.1.2.3,Phases=3,Linecode=CAB108_3_3,Length=0.084830000,Units=km
new line.TR11467093 bus1=BMT2613949B.1.2.3,bus2=BMT100950733.1.2.3,Phases=3,Linecode=CAB108_3_3,Length=0.015028000,Units=km
new line.TR11467100 bus1=BMT100950740.1.2.3,bus2=BMT2613956B.1.2.3,Phases=3,Linecode=CAB108_3_3,Length=0.082003000,Units=km
new line.TR11467107 bus1=BMT2613739B.1.2.3,bus2=BMT100953526.1.2.3,Phases=3,Linecode=CAB108_3_3,Length=0.018021000,Units=km
new line.TR11467114 bus1=BMT100953533.1.2.3,bus2=BMT3373351B.1.2.3,Phases=3,Linecode=CAB108_3_3,Length=0.028988000,Units=km
new line.TR11467121 bus1=BMT2614201B.1.2.3,bus2=BMT100955619.1.2.3,Phases=3,Linecode=CAB108_3_3,Length=0.018021000,Units=km
new line.TR11467128 bus1=BMT173097170.1.2.3,bus2=BMT3373358B.1.2.3,Phases=3,Linecode=CAB108_3_3,Length=0.031132000,Units=km
new line.TR11467674 bus1=BMT2646002B.1.2.3,bus2=BMT7669713B.1.2.3,Phases=3,Linecode=CAB108_3_3,Length=0.025308000,Units=km
new line.TR11467681 bus1=BMT7669713B.1.2.3,bus2=BMT100961163.1.2.3,Phases=3,Linecode=CAB108_3_3,Length=0.033721000,Units=km
new line.TR11962357 bus1=BMT170561385.1.2.3,bus2=BMT132290496.1.2.3,Phases=3,Linecode=CABA06_3_3,Length=0.014759000,Units=km
...
