CemigDFeeders/IIGD210/IIGD210Transformadores.dss
new transformer.1045137 Phases=1,Windings=3,Buses=[BMT100961107.2 BBT7295521.1.0 BBT7295521.0.2],Conns=[wye wye wye],kvs=[7.967 0.12 0.12],kvas=[5.000000000 5.000000000 5.000000000],Taps=[1,1.000000000,1.000000000],%loadloss=1.900000000,%noloadloss=0.600000000
new transformer.1109222 Phases=3,Windings=2,Buses=[BMT165779956.1.2.3 BBT25061087.1.2.3.0],Conns=[delta wye],kvs=[13.8 0.22],kvas=[75.000000000 75.000000000],Taps=[1,1.000000000],%loadloss=1.340000000,%noloadloss=0.340000000
new transformer.1214355 Phases=3,Windings=2,Buses=[BMT165779965.1.2.3 BBT46118879.1.2.3.0],Conns=[delta wye],kvs=[13.8 0.22],kvas=[75.000000000 75.000000000],Taps=[1,1.000000000],%loadloss=1.340000000,%noloadloss=0.340000000
new transformer.1214432 Phases=3,Windings=2,Buses=[BMT165779967.1.2.3 BBT46144002.1.2.3.0],Conns=[delta wye],kvs=[13.8 0.22],kvas=[75.000000000 75.000000000],Taps=[1,1.000000000],%loadloss=1.340000000,%noloadloss=0.340000000
new transformer.1214446 Phases=3,Windings=2,Buses=[BMT166637396.1.2.3 BBT46162328.1.2.3.0],Conns=[delta wye],kvs=[13.8 0.22],kvas=[75.000000000 75.000000000],Taps=[1,1.000000000],%loadloss=1.340000000,%noloadloss=0.340000000
new transformer.1340110 Phases=3,Windings=2,Buses=[BMT166051781.1.2.3 BBT108181943.1.2.3.0],Conns=[delta wye],kvs=[13.8 0.22],kvas=[45.000000000 45.000000000],Taps=[1,1.000000000],%loadloss=1.522000000,%noloadloss=0.377777000
new transformer.1341671 Phases=3,Windings=2,Buses=[BMT159188321.1.2.3 BBT109224901.1.2.3.0],Conns=[delta wye],kvs=[13.8 0.22],kvas=[45.000000000 45.000000000],Taps=[1,1.000000000],%loadloss=1.522000000,%noloadloss=0.377777000
new transformer.1342119 Phases=3,Windings=2,Buses=[BMT115277703.1.2.3 BBT109522464.1.2.3.0],Conns=[delta wye],kvs=[13.8 0.22],kvas=[45.000000000 45.000000000],Taps=[1,1.000000000],%loadloss=1.522000000,%noloadloss=0.377777000
new transformer.1364449 Phases=3,Windings=2,Buses=[BMT165090247.1.2.3 BBT127361572.1.2.3.0],Conns=[delta wye],kvs=[13.8 0.22],kvas=[45.000000000 45.000000000],Taps=[1,1.000000000],%loadloss=1.522000000,%noloadloss=0.377777000
new transformer.1364736 Phases=3,Windings=2,Buses=[BMT164228109.1.2.3 BBT127456548.1.2.3.0],Conns=[delta wye],kvs=[13.8 0.22],kvas=[150.000000000 150.000000000],Taps=[1,1.000000000],%loadloss=1.127000000,%noloadloss=0.280000000
new transformer.1365947 Phases=3,Windings=2,Buses=[BMT152520233.1.2.3 BBT128284641.1.2.3.0],Conns=[delta wye],kvs=[13.8 0.22],kvas=[45.000000000 45.000000000],Taps=[1,1.000000000],%loadloss=1.522000000,%noloadloss=0.377777000
new transformer.1366759 Phases=3,Windings=2,Buses=[BMT171262357.1.2.3 BBT128766248.1.2.3.0],Conns=[delta wye],kvs=[13.8 0.22],kvas=[45.000000000 45.000000000],Taps=[1,1.000000000],%loadloss=1.522000000,%noloadloss=0.377777000
new transformer.1400097 Phases=3,Windings=2,Buses=[BMT150595639.1.2.3 BBT150442359.1.2.3.0],Conns=[delta wye],kvs=[13.8 0.22],kvas=[75.000000000 75.000000000],Taps=[1,1.000000000],%loadloss=1.340000000,%noloadloss=0.340000000
new transformer.1417002 Phases=1,Windings=3,Buses=[BMT172829136.1 BBT154401111.1.0 BBT154401111.0.2],Conns=[wye wye wye],kvs=[7.967 0.12 0.12],kvas=[5.000000000 5.000000000 5.000000000],Taps=[1,1.000000000,1.000000000],%loadloss=1.900000000,%noloadloss=0.600000000
new transformer.1424686 Phases=3,Windings=2,Buses=[BMT166566251.1.2.3 BBT156038744.1.2.3.0],Conns=[delta wye],kvs=[13.8 0.22],kvas=[250.000000000 250.000000000],Taps=[1,1.000000000],%loadloss=0.990000000,%noloadloss=0.280000000
new transformer.1430896 Phases=3,Windings=2,Buses=[BMT158968685.1.2.3 BBT157409937.1.2.3.0],Conns=[delta wye],kvs=[13.8 0.22],kvas=[75.000000000 75.000000000],Taps=[1,1.000000000],%loadloss=1.340000000,%noloadloss=0.340000000
new transformer.1431050 Phases=3,Windings=2,Buses=[BMT157441417.1.2.3 BBT157441272.1.2.3.0],Conns=[delta wye],kvs=[13.8 0.22],kvas=[100.000000000 100.000000000],Taps=[1,1.000000000],%loadloss=1.218000000,%noloadloss=0.335000000
new transformer.1431515 Phases=3,Windings=2,Buses=[BMT165779954.1.2.3 BBT157549374.1.2.3.0],Conns=[delta wye],kvs=[13.8 0.22],kvas=[45.000000000 45.000000000],Taps=[1,1.000000000],%loadloss=1.522000000,%noloadloss=0.377777000
new transformer.1441956 Phases=3,Windings=2,Buses=[BMT159576010.1.2.3 BBT159575501.1.2.3.0],Conns=[delta wye],kvs=[13.8 0.22],kvas=[75.000000000 75.000000000],Taps=[1,1.000000000],%loadloss=1.340000000,%noloadloss=0.340000000
new transformer.1442458 Phases=3,Windings=2,Buses=[BMT165779961.1.2.3 BBT159668875.1.2.3.0],Conns=[delta wye],kvs=[13.8 0.22],kvas=[45.000000000 45.000000000],Taps=[1,1.000000000],%loadloss=1.522000000,%noloadloss=0.377777000
new transformer.1447760 Phases=3,Windings=2,Buses=[BMT161151165.1.2.3 BBT161151171.1.2.3.0],Conns=[delta wye],kvs=[13.8 0.22],kvas=[150.000000000 150.000000000],Taps=[1,1.000000000],%loadloss=1.127000000,%noloadloss=0.280000000
...